/*--------------------------------*- C++ -*----------------------------------*\
  =========                 |
  \\      /  F ield         | OpenFOAM: The Open Source CFD Toolbox
   \\    /   O peration     | Website:  https://openfoam.org
    \\  /    A nd           | Version:  6
     \\/     M anipulation  |
\*---------------------------------------------------------------------------*/
FoamFile
{
    version     2.0;
    format      ascii;
    class       polyBoundaryMesh;
    location    "constant/polyMesh";
    object      boundary;
}
// * * * * * * * * * * * * * * * * * * * * * * * * * * * * * * * * * * * * * //

6
(
    lowerWall
    {
        type            wall;
        inGroups        1(wall);
        nFaces          120;
        startFace       14220;
    }
    atmosphere
    {
        type            patch;
        nFaces          120;
        startFace       14340;
    }
    rightWall
    {
        type            empty;
        inGroups        1(empty);
        nFaces          7200;
        startFace       14460;
    }
    leftWall
    {
        type            empty;
        inGroups        1(empty);
        nFaces          7200;
        startFace       21660;
    }
    hotWall
    {
        type            patch;
        nFaces          60;
        startFace       28860;
    }
    coldWall
    {
        type            patch;
        nFaces          60;
        startFace       28920;
    }
)

// ************************************************************************* //
