/*--------------------------------*- C++ -*----------------------------------*\
  =========                 |
  \\      /  F ield         | OpenFOAM: The Open Source CFD Toolbox
   \\    /   O peration     | Website:  https://openfoam.org
    \\  /    A nd           | Version:  6
     \\/     M anipulation  |
\*---------------------------------------------------------------------------*/
FoamFile
{
    version     2.0;
    format      ascii;
    class       polyBoundaryMesh;
    location    "constant/polyMesh";
    object      boundary;
}
// * * * * * * * * * * * * * * * * * * * * * * * * * * * * * * * * * * * * * //

6
(
    lowerWall
    {
        type            wall;
        inGroups        1(wall);
        nFaces          480;
        startFace       229680;
    }
    atmosphere
    {
        type            patch;
        nFaces          480;
        startFace       230160;
    }
    rightWall
    {
        type            empty;
        inGroups        1(empty);
        nFaces          115200;
        startFace       230640;
    }
    leftWall
    {
        type            empty;
        inGroups        1(empty);
        nFaces          115200;
        startFace       345840;
    }
    hotWall
    {
        type            patch;
        nFaces          240;
        startFace       461040;
    }
    coldWall
    {
        type            patch;
        nFaces          240;
        startFace       461280;
    }
)

// ************************************************************************* //
