/*--------------------------------*- C++ -*----------------------------------*\
  =========                 |
  \\      /  F ield         | OpenFOAM: The Open Source CFD Toolbox
   \\    /   O peration     | Website:  https://openfoam.org
    \\  /    A nd           | Version:  6
     \\/     M anipulation  |
\*---------------------------------------------------------------------------*/
FoamFile
{
    version     2.0;
    format      ascii;
    class       dictionary;
    location    "constant";
    object      transportProperties;
}
// * * * * * * * * * * * * * * * * * * * * * * * * * * * * * * * * * * * * * //

phases (phase1 phase2);

phase1
{
    transportModel  Newtonian;
    nu              1.0e-06;
    rho             4500;
    cp  550;
    kappa  10.0; 
	Tsolidus 1878;
	Tliquidus 1933;
    LatentHeat 360000;
    beta    1.2e-4;
}

phase2
{
    transportModel  Newtonian;
    nu              1.48e-05;
    rho             1;
    cp  1000;
    kappa  1.0;
    Tsolidus    1.0;
    Tliquidus   10.0;
    LatentHeat  1.0;
    beta    5.0e-4;
}

sigma            1.5;
dsigmadT	-2e-4;

p0		100000.0;
Tvap 3560.0;
Mm 0.055;
LatentHeatVap 6000000.0;

// ************************************************************************* //
