/*--------------------------------*- C++ -*----------------------------------*\
  =========                 |
  \\      /  F ield         | OpenFOAM: The Open Source CFD Toolbox
   \\    /   O peration     | Website:  https://openfoam.org
    \\  /    A nd           | Version:  6
     \\/     M anipulation  |
\*---------------------------------------------------------------------------*/
FoamFile
{
    version     2.0;
    format      binary;
    class       polyBoundaryMesh;
    location    "constant/polyMesh";
    object      boundary;
}
// * * * * * * * * * * * * * * * * * * * * * * * * * * * * * * * * * * * * * //

7
(
    left
    {
        type            wall;
        inGroups        1(wall);
        nFaces          0;
        startFace       4274;
    }
    right
    {
        type            wall;
        inGroups        1(wall);
        nFaces          50;
        startFace       4274;
    }
    bottom
    {
        type            wall;
        inGroups        1(wall);
        nFaces          0;
        startFace       4324;
    }
    top
    {
        type            patch;
        nFaces          44;
        startFace       4324;
    }
    frontAndBack
    {
        type            empty;
        inGroups        1(empty);
        nFaces          4368;
        startFace       4368;
    }
    procBoundary3to0
    {
        type            processor;
        inGroups        1(processor);
        nFaces          43;
        startFace       8736;
        matchTolerance  0.0001;
        transform       unknown;
        myProcNo        3;
        neighbProcNo    0;
    }
    procBoundary3to4
    {
        type            processor;
        inGroups        1(processor);
        nFaces          51;
        startFace       8779;
        matchTolerance  0.0001;
        transform       unknown;
        myProcNo        3;
        neighbProcNo    4;
    }
)

// ************************************************************************* //
