/*--------------------------------*- C++ -*----------------------------------*\
| =========                 |                                                 |
| \\      /  F ield         | OpenFOAM: The Open Source CFD Toolbox           |
|  \\    /   O peration     | Version:  3.0.1                                 |
|   \\  /    A nd           | Web:      www.OpenFOAM.org                      |
|    \\/     M anipulation  |                                                 |
\*---------------------------------------------------------------------------*/
FoamFile
{
    version     2.0;
    format      ascii;
    class       dictionary;
    location    "constant";
    object      transportProperties;
}
// * * * * * * * * * * * * * * * * * * * * * * * * * * * * * * * * * * * * * //


//slamDampCoeff	1;
//maxSlamVelocity	100.0;


phases
(
     Duplex	//P91
     {
         nu         0.515e-6;//5
         kappa      15.0;//10;
         Cp         820.0;//https://www.azom.com/article.aspx?ArticleID=958   &   https://www.engineeringtoolbox.com/liquid-metal-boiling-points-specific-heat-d_1893.html
         rho        7805;//https://www.azom.com/article.aspx?ArticleID=958
	kappasolid 19.2;//https://www.azom.com/article.aspx?ArticleID=958
	Cpsolid 550.0;
	Tsolidus 1801.15;
	Tliquidus 1821.15;
Tgaslowerbound 3124.0;
Tgasupperbound 3136.0;
Cpgas 820;
kappagas 2.0;//1e-08;
betagas 5.0e-4;//-4
Latentheatgas 6090000;//https://en.wikipedia.org/wiki/Enthalpy_of_vaporization
	Latentheat 270000;
	beta 1.54e-5;
molarmass 0.055;

preexpoviscosity 0.315e-3;
viscousactivation 46.5e3;

         diameterModel constant;
         constantCoeffs
         {
             d               1e-3;
         }
     }



     air
     {
         nu         5.0e-5;
         kappa      0.001;
         Cp         1500.0;
         rho        0.1;
	kappasolid 0.001;
	Cpsolid 1500.0;
	Tsolidus 50.0;//DUMMY
	Tliquidus 60.0;//DUMMY
Tgaslowerbound 100.0;
Tgasupperbound 110.0;
Cpgas 1500.0;
kappagas 0.001;//1e-02;//1e-08;
betagas 1.0e-3;//6.775769e-8
Latentheatgas 200.0;//6090000;
	Latentheat 20.0;
	beta 1.0e-5;//1.0e-9;
molarmass 0.04;

preexpoviscosity 2.0e-6;
viscousactivation 1.0e-12;

         diameterModel constant;
         constantCoeffs
         {
             d              5e-3;
         }
     }
);

sigmas
(
    (air Duplex)     0.05
);

interfaceCompression
(
    (Duplex air)     1.0
  //  (air steel316)       1

);

virtualMass
(
    (Duplex air)     0.5
);

interfaceDiffusion
(
    (Duplex air)     0.0
);


drag
(
    (air Duplex)
    {
        type blended;

        air
        {
            type SchillerNaumann;
            residualPhaseFraction 0;
            residualSlip 0;
        }

        Duplex
        {
            type SchillerNaumann;
            residualPhaseFraction 0;
            residualSlip 0;
        }

        residualPhaseFraction 1e-3;
        residualSlip 1e-3;
    }

    


);


// This is a dummy to support the Smagorinsky model
transportModel  Newtonian;
nu              [0 2 -1 0 0 0 0] 0;


// ************************************************************************* //
