/*--------------------------------*- C++ -*----------------------------------*\
| =========                 |                                                 |
| \\      /  F ield         | OpenFOAM: The Open Source CFD Toolbox           |
|  \\    /   O peration     | Version:  3.0.1                                 |
|   \\  /    A nd           | Web:      www.OpenFOAM.org                      |
|    \\/     M anipulation  |                                                 |
\*---------------------------------------------------------------------------*/
FoamFile
{
    version     2.0;
    format      ascii;
    class       dictionary;
    location    "system";
    object      fvSchemes;
}
// * * * * * * * * * * * * * * * * * * * * * * * * * * * * * * * * * * * * * //

ddtSchemes
{
    default         CrankNicolson 0.0;//Euler;
}

gradSchemes
{
    default         Gauss linear;
}

divSchemes
{
    "div\(phi,alpha.*\)"    Gauss vanLeer01;//Gauss vanLeer;
    "div\(phir,alpha.*,alpha.*\)"  Gauss vanLeer01;//Gauss vanLeer;

    "div\(alphaPhi.*,U.*\)" Gauss limitedLinearV 1;//Gauss linear;//
    div(Rc)                 Gauss linear;
    "div\(phi.*,U.*\)"      Gauss limitedLinearV 1;//Gauss linear;//

    div(phi,Temperature)   Gauss upwind;				//Gauss linear;//
    div(phi*cp,Temperature)   Gauss linearUpwind grad(Temperature);	//Gauss linear;//

     div(phi,epsilon1) Gauss vanLeer01;
//	div(phi,epsilonplaceholder) Gauss vanLeer01;
     div(phi,epsilon2) Gauss vanLeer01;
//div(phi,epsilonplaceholder2) Gauss vanLeer01;

}

laplacianSchemes
{
    default         Gauss linear uncorrected;//uncorrected;//corrected
}

interpolationSchemes
{
    default         linear;
}

snGradSchemes
{
    default uncorrected;//limited 0.5;//         uncorrected;//corrected
}
////

fluxRequired
{
    default         no;
    p_rgh;

}

// ************************************************************************* //
