/*--------------------------------*- C++ -*----------------------------------*\
| =========                 |                                                 |
| \\      /  F ield         | OpenFOAM: The Open Source CFD Toolbox           |
|  \\    /   O peration     | Version:  3.0.1                                 |
|   \\  /    A nd           | Web:      www.OpenFOAM.org                      |
|    \\/     M anipulation  |                                                 |
\*---------------------------------------------------------------------------*/
FoamFile
{
    version     2.0;
    format      ascii;
    class       dictionary;
    object      blockMeshDict;
}
// * * * * * * * * * * * * * * * * * * * * * * * * * * * * * * * * * * * * * //

convertToMeters 0.001;

vertices
(
    (0 20 -0.05)//0
    (20 20 -0.05)//1
    (20 29 -0.05)//2
    (0 29 -0.05)//3
    (0 20 0.05)//4
    (20 20 0.05)//5
    (20 29 0.05)//6
    (0 29 0.05)//7
    (40 20 -0.05)//8
    (40 29 -0.05)//9	
    (40 20 0.05)//10
    (40 29 0.05)//11
    (40 42 -0.05)//12 
    (20 42 -0.05)//13
    (40 42 0.05)//14
    (20 42 0.05)//15
    (0 42 -0.05)//16
    (0 42 0.05)//17
);
blocks
(
    hex (0 1 2 3 4 5 6 7) (72 48 1) simpleGrading (0.05 0.5 1)		//REGION 1
    hex (1 8 9 2 5 10 11 6) (72 48 1) simpleGrading (20 0.5 1)	//REGION 2
    hex (2 9 12 13 6 11 14 15) (72 96 1) simpleGrading (20 1 1)	//REGION 3
    hex (3 2 13 16 7 6 15 17) (72 96 1) simpleGrading (0.05 1 1)	//REGION 4

//    hex (0 1 2 3 4 5 6 7) (36 30 1) simpleGrading (0.05 0.5 1)		//REGION 1
//    hex (1 8 9 2 5 10 11 6) (36 30 1) simpleGrading (20 0.5 1)	//REGION 2
//    hex (2 9 12 13 6 11 14 15) (36 48 1) simpleGrading (20 1 1)	//REGION 3
//    hex (3 2 13 16 7 6 15 17) (36 48 1) simpleGrading (0.05 1 1)	//REGION 4


);

edges
(
);

//patches(

//patch onetwo(
//(2 6 5 1)
//(11 15 12 8)
//)
//patch onefour(
//(3 2 6 7)
//(27 26 30 31)
//)
//patch twothree(
//(11 10 14 15)
//(16 17 21 20)
//)
//patch threefour(
//(19 23 20 16)
//(26 30 29 25)
//)

//);


boundary
(

    lowerWall
    {
        type wall;
        faces
        (
            (15 14 12 13)
	    (17 15 13 16)
        );
    }

    atmosphere
    {
        type patch;
        faces
        (
            (1 5 4 0)
	    (1 8 10 5)
        );
    }
    rightWall
    {
        type wall;
        faces
        (
            (9 11 10 8)
	    (12 14 11 9)
        );
    }
    leftWall
    {
        type wall;
        faces
        (
            (0 4 7 3)
	    (3 7 17 16)
        );
    }
    frontAndBack
    {
        type empty;
        faces
        (
            (0 3 2 1)
	    (1 2 9 8)
	    (2 13 12 9)
	    (3 16 13 2)

            (4 5 6 7)
            (5 10 11 6)
            (6 11 14 15)
            (7 6 15 17)
        );
    }
);

mergePatchPairs
(


);

// ************************************************************************* //
