/*--------------------------------*- C++ -*----------------------------------*\
| =========                 |                                                 |
| \\      /  F ield         | OpenFOAM: The Open Source CFD Toolbox           |
|  \\    /   O peration     | Version:  3.0.1                                 |
|   \\  /    A nd           | Web:      www.OpenFOAM.org                      |
|    \\/     M anipulation  |                                                 |
\*---------------------------------------------------------------------------*/
FoamFile
{
    version     2.0;
    format      ascii;
    class       dictionary;
    location    "system";
    object      setFieldsDict;
}
// * * * * * * * * * * * * * * * * * * * * * * * * * * * * * * * * * * * * * //

defaultFieldValues
(
volScalarFieldValue alpha.phase1 0
);

regions
(
    boxToCell
    {
        box (-1 0.3 -1) (1 1 1);
        fieldValues
        (
volScalarFieldValue alpha.phase1 1
        );
    }






/*
    cylinderToCell//filler
    {
       p1       (-1 -0.000 0.005); // start point on cylinder axis
      p2       (1 -0.000 0.005);   // end point on cylinder axis
       radius   0.003;
	fieldValues
        (
    volScalarFieldValue alpha.air 0
    volScalarFieldValue alpha.Fe 0.0059
volScalarFieldValue alpha.Fevapour 0
    volScalarFieldValue alpha.Ni 0.72441
volScalarFieldValue alpha.Nivapour 0
    volScalarFieldValue alpha.Ti 0.00319
volScalarFieldValue alpha.Tivapour 0
    volScalarFieldValue alpha.Cr 0.208
volScalarFieldValue alpha.Crvapour 0
    volScalarFieldValue alpha.Mn 0.0325
volScalarFieldValue alpha.Mnvapour 0
    volScalarFieldValue alpha.Nb 0.026
volScalarFieldValue alpha.Nbvapour 0
		);
    }

*/


);


// ************************************************************************* //
