/*--------------------------------*- C++ -*----------------------------------*\
  =========                 |
  \\      /  F ield         | OpenFOAM: The Open Source CFD Toolbox
   \\    /   O peration     | Website:  https://openfoam.org
    \\  /    A nd           | Version:  6
     \\/     M anipulation  |
\*---------------------------------------------------------------------------*/
FoamFile
{
    version     2.0;
    format      ascii;
    class       polyBoundaryMesh;
    location    "constant/polyMesh";
    object      boundary;
}
// * * * * * * * * * * * * * * * * * * * * * * * * * * * * * * * * * * * * * //

5
(
    lowerWall
    {
        type            wall;
        inGroups        1(wall);
        nFaces          50;
        startFace       4900;
    }
    atmosphere
    {
        type            patch;
        nFaces          50;
        startFace       4950;
    }
    rightWall
    {
        type            empty;
        inGroups        1(empty);
        nFaces          2500;
        startFace       5000;
    }
    leftWall
    {
        type            empty;
        inGroups        1(empty);
        nFaces          2500;
        startFace       7500;
    }
    frontAndBack
    {
        type            patch;
        nFaces          100;
        startFace       10000;
    }
)

// ************************************************************************* //
