/*--------------------------------*- C++ -*----------------------------------*\
  =========                 |
  \\      /  F ield         | OpenFOAM: The Open Source CFD Toolbox
   \\    /   O peration     | Website:  https://openfoam.org
    \\  /    A nd           | Version:  6
     \\/     M anipulation  |
\*---------------------------------------------------------------------------*/
FoamFile
{
    version     2.0;
    format      binary;
    class       polyBoundaryMesh;
    location    "constant/polyMesh";
    object      boundary;
}
// * * * * * * * * * * * * * * * * * * * * * * * * * * * * * * * * * * * * * //

8
(
    left
    {
        type            wall;
        inGroups        1(wall);
        nFaces          0;
        startFace       4240;
    }
    right
    {
        type            wall;
        inGroups        1(wall);
        nFaces          0;
        startFace       4240;
    }
    bottom
    {
        type            wall;
        inGroups        1(wall);
        nFaces          43;
        startFace       4240;
    }
    top
    {
        type            patch;
        nFaces          0;
        startFace       4283;
    }
    frontAndBack
    {
        type            empty;
        inGroups        1(empty);
        nFaces          4334;
        startFace       4283;
    }
    procBoundary1to0
    {
        type            processor;
        inGroups        1(processor);
        nFaces          50;
        startFace       8617;
        matchTolerance  0.0001;
        transform       unknown;
        myProcNo        1;
        neighbProcNo    0;
    }
    procBoundary1to2
    {
        type            processor;
        inGroups        1(processor);
        nFaces          51;
        startFace       8667;
        matchTolerance  0.0001;
        transform       unknown;
        myProcNo        1;
        neighbProcNo    2;
    }
    procBoundary1to4
    {
        type            processor;
        inGroups        1(processor);
        nFaces          44;
        startFace       8718;
        matchTolerance  0.0001;
        transform       unknown;
        myProcNo        1;
        neighbProcNo    4;
    }
)

// ************************************************************************* //
