/*--------------------------------*- C++ -*----------------------------------*\
  =========                 |
  \\      /  F ield         | OpenFOAM: The Open Source CFD Toolbox
   \\    /   O peration     | Website:  https://openfoam.org
    \\  /    A nd           | Version:  6
     \\/     M anipulation  |
\*---------------------------------------------------------------------------*/
FoamFile
{
    version     2.0;
    format      ascii;
    class       dictionary;
    location    "constant";
    object      transportProperties;
}
// * * * * * * * * * * * * * * * * * * * * * * * * * * * * * * * * * * * * * //

phases (phase1 phase2);

phase1
{
    transportModel  Newtonian;
    nu              1.636e-07;
    rho             9780;
    cp  123;
    cpsolid  123;
    kappa  10.35;//70.0; 
    kappasolid  10.35; 
    Tsolidus    544.35;
    Tliquidus   544.75;
    LatentHeat  4.46e4;
    beta    1.37e-4;
}

phase2
{
    transportModel  Newtonian;
    nu              1.38e-05;
    rho             1.6337;
    cp  520;
cpsolid  520;
    kappa      0.0177;
kappasolid  0.0177; 
    Tsolidus    5.65;
    Tliquidus  10.05;
    LatentHeat  1.0e-6;
    beta    1.0e-5;
}

sigma            0.07;
dsigmadT	-7.0e-5;

p0		100000.0;
Tvap 300000.0;
Mm 0.05;
LatentHeatVap 6000000.0;

// ************************************************************************* //
