/*--------------------------------*- C++ -*----------------------------------*\
  =========                 |
  \\      /  F ield         | OpenFOAM: The Open Source CFD Toolbox
   \\    /   O peration     | Website:  https://openfoam.org
    \\  /    A nd           | Version:  10
     \\/     M anipulation  |
\*---------------------------------------------------------------------------*/
FoamFile
{
    format      ascii;
    class       dictionary;
    location    "system";
    object      fvSolution;
}
// * * * * * * * * * * * * * * * * * * * * * * * * * * * * * * * * * * * * * //

solvers
{
    "alpha.metal.*"
    {
        nAlphaCorr      2;
        nAlphaSubCycles 1;

        MULESCorr       yes;
        nLimiterIter    5;

        solver          smoothSolver;
        smoother        symGaussSeidel;
        tolerance       1e-9;
        relTol          0;
    }

    "pcorr.*"
    {
        solver          PCG;
        preconditioner  DIC;
        tolerance       1e-9;
        relTol          0;
    }

    p_rgh
    {
        solver          PCG;
        preconditioner  DIC;
        tolerance       1e-09;
        relTol          0.0;
    }

    p_rghFinal
    {
        $p_rgh;
        relTol          0;
    }

    U
    {
        solver          smoothSolver;
        smoother        symGaussSeidel;
        tolerance       1e-09;
        relTol          0;
    }
        T
    {
/*
        solver          PBiCG;
        preconditioner  DILU;
        tolerance       1e-12;
        minIter         1;
        maxIter         500;//2
*/
        solver          smoothSolver;
        smoother        symGaussSeidel;
        tolerance       1e-9;
        relTol          0.0;
    }

    TFinal
    {
        $T;
    }
}

MELTING
{
    minTempCorrector 1;
    maxTempCorrector 150;
    epsilonTolerance 1e-5;
    epsilonRelaxation 0.95;
    
    	HS_a 0.00025;
	HS_bg 0.0;//20
	HS_velocity 0.25;//6.0;
	HS_lg -1.0e-4;
	HS_Q 400.0;//

HS_deposition_cutoff 0.5;

Oscillation_Amplitude   0.0;//0.015;
Oscillation_Frequency   0.0;

Y_R 0.2;//0.05; //Y_R->0 HS -> wider
focY	0.0165; //-0.08;//
foc_shift_vel 0.0;
Q_ramp_rate 7800.0;
tshift 0.25;

PowderSim true;


    
    damperSwitch true;//false;//true;
}

PIMPLE
{
    momentumPredictor   no;
    nOuterCorrectors    1;
    nCorrectors         3;
    nNonOrthogonalCorrectors 0;
}

relaxationFactors
{
    equations
    {
        ".*" 1;
    }
}


// ************************************************************************* //
