/*--------------------------------*- C++ -*----------------------------------*\
| =========                 |                                                 |
| \\      /  F ield         | OpenFOAM: The Open Source CFD Toolbox           |
|  \\    /   O peration     | Version:  3.0.1                                 |
|   \\  /    A nd           | Web:      www.OpenFOAM.org                      |
|    \\/     M anipulation  |                                                 |
\*---------------------------------------------------------------------------*/
FoamFile
{
    version     2.0;
    format      ascii;
    class       dictionary;
    location    "system";
    object      setFieldsDict;
}
// * * * * * * * * * * * * * * * * * * * * * * * * * * * * * * * * * * * * * //

defaultFieldValues
(
    volScalarFieldValue alpha.phase1 0

);

regions
(




cylinderToCell
{
p1 	 (-1 	 9.87343e-05 	 0.000586288);
p2 	 (51 	 9.87343e-05 	 0.000586288);
radius 5.09e-06;
fieldValues
(
volScalarFieldValue alpha.phase1 1
);
}
cylinderToCell
{
p1 	 (-1 	 0.00029467 	 0.00043505);
p2 	 (51 	 0.00029467 	 0.00043505);
radius 5.33e-06;
fieldValues
(
volScalarFieldValue alpha.phase1 1
);
}
cylinderToCell
{
p1 	 (-1 	 0.000153432 	 0.000208189);
p2 	 (51 	 0.000153432 	 0.000208189);
radius 5.33e-06;
fieldValues
(
volScalarFieldValue alpha.phase1 1
);
}
cylinderToCell
{
p1 	 (-1 	 0.000260443 	 0.00060938);
p2 	 (51 	 0.000260443 	 0.00060938);
radius 5.42e-06;
fieldValues
(
volScalarFieldValue alpha.phase1 1
);
}
cylinderToCell
{
p1 	 (-1 	 0.00029458 	 0.0004243);
p2 	 (51 	 0.00029458 	 0.0004243);
radius 5.42e-06;
fieldValues
(
volScalarFieldValue alpha.phase1 1
);
}
cylinderToCell
{
p1 	 (-1 	 5.54251e-05 	 0.000638793);
p2 	 (51 	 5.54251e-05 	 0.000638793);
radius 5.425e-06;
fieldValues
(
volScalarFieldValue alpha.phase1 1
);
}
cylinderToCell
{
p1 	 (-1 	 0.000167964 	 0.000134739);
p2 	 (51 	 0.000167964 	 0.000134739);
radius 5.425e-06;
fieldValues
(
volScalarFieldValue alpha.phase1 1
);
}
cylinderToCell
{
p1 	 (-1 	 5.54761e-05 	 0.000164571);
p2 	 (51 	 5.54761e-05 	 0.000164571);
radius 5.476e-06;
fieldValues
(
volScalarFieldValue alpha.phase1 1
);
}
cylinderToCell
{
p1 	 (-1 	 0.000240718 	 7.91411e-05);
p2 	 (51 	 0.000240718 	 7.91411e-05);
radius 5.51e-06;
fieldValues
(
volScalarFieldValue alpha.phase1 1
);
}
cylinderToCell
{
p1 	 (-1 	 0.000121353 	 0.00028362);
p2 	 (51 	 0.000121353 	 0.00028362);
radius 5.54e-06;
fieldValues
(
volScalarFieldValue alpha.phase1 1
);
}
cylinderToCell
{
p1 	 (-1 	 0.000155539 	 0.000173235);
p2 	 (51 	 0.000155539 	 0.000173235);
radius 5.54e-06;
fieldValues
(
volScalarFieldValue alpha.phase1 1
);
}
cylinderToCell
{
p1 	 (-1 	 0.00019471 	 0.000241848);
p2 	 (51 	 0.00019471 	 0.000241848);
radius 5.663e-06;
fieldValues
(
volScalarFieldValue alpha.phase1 1
);
}
cylinderToCell
{
p1 	 (-1 	 0.000152834 	 0.000119906);
p2 	 (51 	 0.000152834 	 0.000119906);
radius 5.663e-06;
fieldValues
(
volScalarFieldValue alpha.phase1 1
);
}
cylinderToCell
{
p1 	 (-1 	 7.50883e-05 	 0.000462);
p2 	 (51 	 7.50883e-05 	 0.000462);
radius 5.748e-06;
fieldValues
(
volScalarFieldValue alpha.phase1 1
);
}
cylinderToCell
{
p1 	 (-1 	 0.00029425 	 0.000179309);
p2 	 (51 	 0.00029425 	 0.000179309);
radius 5.75e-06;
fieldValues
(
volScalarFieldValue alpha.phase1 1
);
}
cylinderToCell
{
p1 	 (-1 	 0.000235838 	 8.92887e-05);
p2 	 (51 	 0.000235838 	 8.92887e-05);
radius 5.75e-06;
fieldValues
(
volScalarFieldValue alpha.phase1 1
);
}
cylinderToCell
{
p1 	 (-1 	 5.58801e-05 	 0.000650089);
p2 	 (51 	 5.58801e-05 	 0.000650089);
radius 5.88e-06;
fieldValues
(
volScalarFieldValue alpha.phase1 1
);
}
cylinderToCell
{
p1 	 (-1 	 9.51884e-05 	 0.000418585);
p2 	 (51 	 9.51884e-05 	 0.000418585);
radius 6.173e-06;
fieldValues
(
volScalarFieldValue alpha.phase1 1
);
}
cylinderToCell
{
p1 	 (-1 	 0.000146625 	 5.18847e-05);
p2 	 (51 	 0.000146625 	 5.18847e-05);
radius 6.2e-06;
fieldValues
(
volScalarFieldValue alpha.phase1 1
);
}
cylinderToCell
{
p1 	 (-1 	 0.000112355 	 6.20011e-06);
p2 	 (51 	 0.000112355 	 6.20011e-06);
radius 6.2e-06;
fieldValues
(
volScalarFieldValue alpha.phase1 1
);
}
cylinderToCell
{
p1 	 (-1 	 0.000155954 	 0.000311201);
p2 	 (51 	 0.000155954 	 0.000311201);
radius 6.27e-06;
fieldValues
(
volScalarFieldValue alpha.phase1 1
);
}
cylinderToCell
{
p1 	 (-1 	 0.000100124 	 0.000597563);
p2 	 (51 	 0.000100124 	 0.000597563);
radius 6.27e-06;
fieldValues
(
volScalarFieldValue alpha.phase1 1
);
}
cylinderToCell
{
p1 	 (-1 	 8.08405e-05 	 0.000615161);
p2 	 (51 	 8.08405e-05 	 0.000615161);
radius 6.343e-06;
fieldValues
(
volScalarFieldValue alpha.phase1 1
);
}
cylinderToCell
{
p1 	 (-1 	 0.000216804 	 0.000303643);
p2 	 (51 	 0.000216804 	 0.000303643);
radius 6.343e-06;
fieldValues
(
volScalarFieldValue alpha.phase1 1
);
}
cylinderToCell
{
p1 	 (-1 	 0.000164786 	 7.21465e-05);
p2 	 (51 	 0.000164786 	 7.21465e-05);
radius 6.39e-06;
fieldValues
(
volScalarFieldValue alpha.phase1 1
);
}
cylinderToCell
{
p1 	 (-1 	 0.000225287 	 0.000666285);
p2 	 (51 	 0.000225287 	 0.000666285);
radius 6.39e-06;
fieldValues
(
volScalarFieldValue alpha.phase1 1
);
}
cylinderToCell
{
p1 	 (-1 	 9.97559e-05 	 6.40011e-06);
p2 	 (51 	 9.97559e-05 	 6.40011e-06);
radius 6.4e-06;
fieldValues
(
volScalarFieldValue alpha.phase1 1
);
}
cylinderToCell
{
p1 	 (-1 	 8.61108e-05 	 0.000545422);
p2 	 (51 	 8.61108e-05 	 0.000545422);
radius 6.4e-06;
fieldValues
(
volScalarFieldValue alpha.phase1 1
);
}
cylinderToCell
{
p1 	 (-1 	 9.8923e-05 	 4.1349e-05);
p2 	 (51 	 9.8923e-05 	 4.1349e-05);
radius 6.45e-06;
fieldValues
(
volScalarFieldValue alpha.phase1 1
);
}
cylinderToCell
{
p1 	 (-1 	 9.9061e-05 	 0.000665349);
p2 	 (51 	 9.9061e-05 	 0.000665349);
radius 6.45e-06;
fieldValues
(
volScalarFieldValue alpha.phase1 1
);
}
cylinderToCell
{
p1 	 (-1 	 0.000236062 	 0.000435881);
p2 	 (51 	 0.000236062 	 0.000435881);
radius 6.462e-06;
fieldValues
(
volScalarFieldValue alpha.phase1 1
);
}
cylinderToCell
{
p1 	 (-1 	 0.000189212 	 0.000612293);
p2 	 (51 	 0.000189212 	 0.000612293);
radius 6.49e-06;
fieldValues
(
volScalarFieldValue alpha.phase1 1
);
}
cylinderToCell
{
p1 	 (-1 	 0.000182082 	 0.000412599);
p2 	 (51 	 0.000182082 	 0.000412599);
radius 6.49e-06;
fieldValues
(
volScalarFieldValue alpha.phase1 1
);
}
cylinderToCell
{
p1 	 (-1 	 0.000136388 	 7.81554e-05);
p2 	 (51 	 0.000136388 	 7.81554e-05);
radius 6.5e-06;
fieldValues
(
volScalarFieldValue alpha.phase1 1
);
}
cylinderToCell
{
p1 	 (-1 	 5.65001e-05 	 0.000515419);
p2 	 (51 	 5.65001e-05 	 0.000515419);
radius 6.5e-06;
fieldValues
(
volScalarFieldValue alpha.phase1 1
);
}
cylinderToCell
{
p1 	 (-1 	 0.000293453 	 3.08394e-05);
p2 	 (51 	 0.000293453 	 3.08394e-05);
radius 6.547e-06;
fieldValues
(
volScalarFieldValue alpha.phase1 1
);
}
cylinderToCell
{
p1 	 (-1 	 0.000124738 	 3.02236e-05);
p2 	 (51 	 0.000124738 	 3.02236e-05);
radius 6.547e-06;
fieldValues
(
volScalarFieldValue alpha.phase1 1
);
}
cylinderToCell
{
p1 	 (-1 	 0.000101807 	 7.54974e-05);
p2 	 (51 	 0.000101807 	 7.54974e-05);
radius 6.564e-06;
fieldValues
(
volScalarFieldValue alpha.phase1 1
);
}
cylinderToCell
{
p1 	 (-1 	 0.000227559 	 0.000552253);
p2 	 (51 	 0.000227559 	 0.000552253);
radius 6.564e-06;
fieldValues
(
volScalarFieldValue alpha.phase1 1
);
}
cylinderToCell
{
p1 	 (-1 	 0.000148122 	 0.000218872);
p2 	 (51 	 0.000148122 	 0.000218872);
radius 6.598e-06;
fieldValues
(
volScalarFieldValue alpha.phase1 1
);
}
cylinderToCell
{
p1 	 (-1 	 0.000199508 	 0.000581757);
p2 	 (51 	 0.000199508 	 0.000581757);
radius 6.598e-06;
fieldValues
(
volScalarFieldValue alpha.phase1 1
);
}
cylinderToCell
{
p1 	 (-1 	 0.00012706 	 0.000294403);
p2 	 (51 	 0.00012706 	 0.000294403);
radius 6.66e-06;
fieldValues
(
volScalarFieldValue alpha.phase1 1
);
}
cylinderToCell
{
p1 	 (-1 	 0.000259631 	 0.000398805);
p2 	 (51 	 0.000259631 	 0.000398805);
radius 6.66e-06;
fieldValues
(
volScalarFieldValue alpha.phase1 1
);
}
cylinderToCell
{
p1 	 (-1 	 0.000110248 	 0.000589261);
p2 	 (51 	 0.000110248 	 0.000589261);
radius 6.7e-06;
fieldValues
(
volScalarFieldValue alpha.phase1 1
);
}
cylinderToCell
{
p1 	 (-1 	 0.000167707 	 0.000406814);
p2 	 (51 	 0.000167707 	 0.000406814);
radius 6.73e-06;
fieldValues
(
volScalarFieldValue alpha.phase1 1
);
}
cylinderToCell
{
p1 	 (-1 	 0.000293221 	 0.000191747);
p2 	 (51 	 0.000293221 	 0.000191747);
radius 6.73e-06;
fieldValues
(
volScalarFieldValue alpha.phase1 1
);
}
cylinderToCell
{
p1 	 (-1 	 0.000220605 	 0.000273145);
p2 	 (51 	 0.000220605 	 0.000273145);
radius 6.82e-06;
fieldValues
(
volScalarFieldValue alpha.phase1 1
);
}
cylinderToCell
{
p1 	 (-1 	 0.000258095 	 0.000134525);
p2 	 (51 	 0.000258095 	 0.000134525);
radius 6.82e-06;
fieldValues
(
volScalarFieldValue alpha.phase1 1
);
}
cylinderToCell
{
p1 	 (-1 	 0.000293096 	 4.45925e-05);
p2 	 (51 	 0.000293096 	 4.45925e-05);
radius 6.887e-06;
fieldValues
(
volScalarFieldValue alpha.phase1 1
);
}
cylinderToCell
{
p1 	 (-1 	 0.00027357 	 0.000397614);
p2 	 (51 	 0.00027357 	 0.000397614);
radius 6.92e-06;
fieldValues
(
volScalarFieldValue alpha.phase1 1
);
}
cylinderToCell
{
p1 	 (-1 	 0.00029295 	 0.000166558);
p2 	 (51 	 0.00029295 	 0.000166558);
radius 6.92e-06;
fieldValues
(
volScalarFieldValue alpha.phase1 1
);
}
cylinderToCell
{
p1 	 (-1 	 5.73121e-05 	 5.30083e-05);
p2 	 (51 	 5.73121e-05 	 5.30083e-05);
radius 7.312e-06;
fieldValues
(
volScalarFieldValue alpha.phase1 1
);
}
cylinderToCell
{
p1 	 (-1 	 0.000203662 	 9.28061e-05);
p2 	 (51 	 0.000203662 	 9.28061e-05);
radius 7.34e-06;
fieldValues
(
volScalarFieldValue alpha.phase1 1
);
}
cylinderToCell
{
p1 	 (-1 	 9.31932e-05 	 0.000609276);
p2 	 (51 	 9.31932e-05 	 0.000609276);
radius 7.34e-06;
fieldValues
(
volScalarFieldValue alpha.phase1 1
);
}
cylinderToCell
{
p1 	 (-1 	 0.000250912 	 0.000411002);
p2 	 (51 	 0.000250912 	 0.000411002);
radius 7.38e-06;
fieldValues
(
volScalarFieldValue alpha.phase1 1
);
}
cylinderToCell
{
p1 	 (-1 	 0.000252088 	 0.000576277);
p2 	 (51 	 0.000252088 	 0.000576277);
radius 7.38e-06;
fieldValues
(
volScalarFieldValue alpha.phase1 1
);
}
cylinderToCell
{
p1 	 (-1 	 0.000180006 	 0.000130327);
p2 	 (51 	 0.000180006 	 0.000130327);
radius 7.4e-06;
fieldValues
(
volScalarFieldValue alpha.phase1 1
);
}
cylinderToCell
{
p1 	 (-1 	 5.74141e-05 	 6.77342e-05);
p2 	 (51 	 5.74141e-05 	 6.77342e-05);
radius 7.414e-06;
fieldValues
(
volScalarFieldValue alpha.phase1 1
);
}
cylinderToCell
{
p1 	 (-1 	 0.000149717 	 0.000161663);
p2 	 (51 	 0.000149717 	 0.000161663);
radius 7.414e-06;
fieldValues
(
volScalarFieldValue alpha.phase1 1
);
}
cylinderToCell
{
p1 	 (-1 	 5.75934e-05 	 0.000379259);
p2 	 (51 	 5.75934e-05 	 0.000379259);
radius 7.55e-06;
fieldValues
(
volScalarFieldValue alpha.phase1 1
);
}
cylinderToCell
{
p1 	 (-1 	 0.000120693 	 0.000351551);
p2 	 (51 	 0.000120693 	 0.000351551);
radius 7.55e-06;
fieldValues
(
volScalarFieldValue alpha.phase1 1
);
}
cylinderToCell
{
p1 	 (-1 	 0.000292348 	 0.000563345);
p2 	 (51 	 0.000292348 	 0.000563345);
radius 7.652e-06;
fieldValues
(
volScalarFieldValue alpha.phase1 1
);
}
cylinderToCell
{
p1 	 (-1 	 7.65433e-05 	 0.000256656);
p2 	 (51 	 7.65433e-05 	 0.000256656);
radius 7.652e-06;
fieldValues
(
volScalarFieldValue alpha.phase1 1
);
}
cylinderToCell
{
p1 	 (-1 	 0.000187265 	 0.00042583);
p2 	 (51 	 0.000187265 	 0.00042583);
radius 7.72e-06;
fieldValues
(
volScalarFieldValue alpha.phase1 1
);
}
cylinderToCell
{
p1 	 (-1 	 7.17634e-05 	 0.00051273);
p2 	 (51 	 7.17634e-05 	 0.00051273);
radius 7.822e-06;
fieldValues
(
volScalarFieldValue alpha.phase1 1
);
}
cylinderToCell
{
p1 	 (-1 	 5.78221e-05 	 0.000209358);
p2 	 (51 	 5.78221e-05 	 0.000209358);
radius 7.822e-06;
fieldValues
(
volScalarFieldValue alpha.phase1 1
);
}
cylinderToCell
{
p1 	 (-1 	 0.000267469 	 0.000121637);
p2 	 (51 	 0.000267469 	 0.000121637);
radius 7.86e-06;
fieldValues
(
volScalarFieldValue alpha.phase1 1
);
}
cylinderToCell
{
p1 	 (-1 	 6.81051e-05 	 0.000643166);
p2 	 (51 	 6.81051e-05 	 0.000643166);
radius 7.975e-06;
fieldValues
(
volScalarFieldValue alpha.phase1 1
);
}
cylinderToCell
{
p1 	 (-1 	 0.000292019 	 0.000627148);
p2 	 (51 	 0.000292019 	 0.000627148);
radius 7.975e-06;
fieldValues
(
volScalarFieldValue alpha.phase1 1
);
}
cylinderToCell
{
p1 	 (-1 	 0.000191006 	 8.03133e-06);
p2 	 (51 	 0.000191006 	 8.03133e-06);
radius 8.026e-06;
fieldValues
(
volScalarFieldValue alpha.phase1 1
);
}
cylinderToCell
{
p1 	 (-1 	 0.000266018 	 0.000582859);
p2 	 (51 	 0.000266018 	 0.000582859);
radius 8.026e-06;
fieldValues
(
volScalarFieldValue alpha.phase1 1
);
}
cylinderToCell
{
p1 	 (-1 	 0.000148356 	 0.000233564);
p2 	 (51 	 0.000148356 	 0.000233564);
radius 8.06e-06;
fieldValues
(
volScalarFieldValue alpha.phase1 1
);
}
cylinderToCell
{
p1 	 (-1 	 9.09468e-05 	 0.000203388);
p2 	 (51 	 9.09468e-05 	 0.000203388);
radius 8.13e-06;
fieldValues
(
volScalarFieldValue alpha.phase1 1
);
}
cylinderToCell
{
p1 	 (-1 	 9.3288e-05 	 0.000219574);
p2 	 (51 	 9.3288e-05 	 0.000219574);
radius 8.145e-06;
fieldValues
(
volScalarFieldValue alpha.phase1 1
);
}
cylinderToCell
{
p1 	 (-1 	 0.000251467 	 0.000121102);
p2 	 (51 	 0.000251467 	 0.000121102);
radius 8.15e-06;
fieldValues
(
volScalarFieldValue alpha.phase1 1
);
}
cylinderToCell
{
p1 	 (-1 	 0.000164437 	 2.56063e-05);
p2 	 (51 	 0.000164437 	 2.56063e-05);
radius 8.29e-06;
fieldValues
(
volScalarFieldValue alpha.phase1 1
);
}
cylinderToCell
{
p1 	 (-1 	 8.65171e-05 	 3.31685e-05);
p2 	 (51 	 8.65171e-05 	 3.31685e-05);
radius 8.41e-06;
fieldValues
(
volScalarFieldValue alpha.phase1 1
);
}
cylinderToCell
{
p1 	 (-1 	 0.000121228 	 0.000189194);
p2 	 (51 	 0.000121228 	 0.000189194);
radius 8.468e-06;
fieldValues
(
volScalarFieldValue alpha.phase1 1
);
}
cylinderToCell
{
p1 	 (-1 	 0.00029149 	 0.000547205);
p2 	 (51 	 0.00029149 	 0.000547205);
radius 8.51e-06;
fieldValues
(
volScalarFieldValue alpha.phase1 1
);
}
cylinderToCell
{
p1 	 (-1 	 9.26144e-05 	 0.000254042);
p2 	 (51 	 9.26144e-05 	 0.000254042);
radius 8.63e-06;
fieldValues
(
volScalarFieldValue alpha.phase1 1
);
}
cylinderToCell
{
p1 	 (-1 	 8.04562e-05 	 0.000417136);
p2 	 (51 	 8.04562e-05 	 0.000417136);
radius 8.63e-06;
fieldValues
(
volScalarFieldValue alpha.phase1 1
);
}
cylinderToCell
{
p1 	 (-1 	 0.000288642 	 0.000447697);
p2 	 (51 	 0.000288642 	 0.000447697);
radius 8.68e-06;
fieldValues
(
volScalarFieldValue alpha.phase1 1
);
}
cylinderToCell
{
p1 	 (-1 	 0.000167158 	 0.000120657);
p2 	 (51 	 0.000167158 	 0.000120657);
radius 8.68e-06;
fieldValues
(
volScalarFieldValue alpha.phase1 1
);
}
cylinderToCell
{
p1 	 (-1 	 0.000235139 	 0.000580354);
p2 	 (51 	 0.000235139 	 0.000580354);
radius 8.71e-06;
fieldValues
(
volScalarFieldValue alpha.phase1 1
);
}
cylinderToCell
{
p1 	 (-1 	 0.000242597 	 0.000135721);
p2 	 (51 	 0.000242597 	 0.000135721);
radius 8.723e-06;
fieldValues
(
volScalarFieldValue alpha.phase1 1
);
}
cylinderToCell
{
p1 	 (-1 	 0.000133995 	 0.000158027);
p2 	 (51 	 0.000133995 	 0.000158027);
radius 8.723e-06;
fieldValues
(
volScalarFieldValue alpha.phase1 1
);
}
cylinderToCell
{
p1 	 (-1 	 0.000145593 	 0.000685779);
p2 	 (51 	 0.000145593 	 0.000685779);
radius 8.723e-06;
fieldValues
(
volScalarFieldValue alpha.phase1 1
);
}
cylinderToCell
{
p1 	 (-1 	 0.000201029 	 0.000685686);
p2 	 (51 	 0.000201029 	 0.000685686);
radius 8.842e-06;
fieldValues
(
volScalarFieldValue alpha.phase1 1
);
}
cylinderToCell
{
p1 	 (-1 	 0.000242053 	 8.84433e-06);
p2 	 (51 	 0.000242053 	 8.84433e-06);
radius 8.842e-06;
fieldValues
(
volScalarFieldValue alpha.phase1 1
);
}
cylinderToCell
{
p1 	 (-1 	 0.00029103 	 0.000292266);
p2 	 (51 	 0.00029103 	 0.000292266);
radius 8.97e-06;
fieldValues
(
volScalarFieldValue alpha.phase1 1
);
}
cylinderToCell
{
p1 	 (-1 	 0.000173997 	 0.000615034);
p2 	 (51 	 0.000173997 	 0.000615034);
radius 8.97e-06;
fieldValues
(
volScalarFieldValue alpha.phase1 1
);
}
cylinderToCell
{
p1 	 (-1 	 0.000204805 	 0.000231227);
p2 	 (51 	 0.000204805 	 0.000231227);
radius 8.99e-06;
fieldValues
(
volScalarFieldValue alpha.phase1 1
);
}
cylinderToCell
{
p1 	 (-1 	 7.73146e-05 	 0.000558051);
p2 	 (51 	 7.73146e-05 	 0.000558051);
radius 8.99e-06;
fieldValues
(
volScalarFieldValue alpha.phase1 1
);
}
cylinderToCell
{
p1 	 (-1 	 0.000126 	 0.000627483);
p2 	 (51 	 0.000126 	 0.000627483);
radius 9.12e-06;
fieldValues
(
volScalarFieldValue alpha.phase1 1
);
}
cylinderToCell
{
p1 	 (-1 	 0.000229412 	 0.000514731);
p2 	 (51 	 0.000229412 	 0.000514731);
radius 9.199e-06;
fieldValues
(
volScalarFieldValue alpha.phase1 1
);
}
cylinderToCell
{
p1 	 (-1 	 0.000267413 	 0.000412625);
p2 	 (51 	 0.000267413 	 0.000412625);
radius 9.2e-06;
fieldValues
(
volScalarFieldValue alpha.phase1 1
);
}
cylinderToCell
{
p1 	 (-1 	 5.92162e-05 	 0.00056003);
p2 	 (51 	 5.92162e-05 	 0.00056003);
radius 9.216e-06;
fieldValues
(
volScalarFieldValue alpha.phase1 1
);
}
cylinderToCell
{
p1 	 (-1 	 0.000271489 	 0.000599443);
p2 	 (51 	 0.000271489 	 0.000599443);
radius 9.437e-06;
fieldValues
(
volScalarFieldValue alpha.phase1 1
);
}
cylinderToCell
{
p1 	 (-1 	 0.000233856 	 0.000496619);
p2 	 (51 	 0.000233856 	 0.000496619);
radius 9.45e-06;
fieldValues
(
volScalarFieldValue alpha.phase1 1
);
}
cylinderToCell
{
p1 	 (-1 	 0.000136484 	 0.000612156);
p2 	 (51 	 0.000136484 	 0.000612156);
radius 9.45e-06;
fieldValues
(
volScalarFieldValue alpha.phase1 1
);
}
cylinderToCell
{
p1 	 (-1 	 0.000123669 	 0.000310152);
p2 	 (51 	 0.000123669 	 0.000310152);
radius 9.45e-06;
fieldValues
(
volScalarFieldValue alpha.phase1 1
);
}
cylinderToCell
{
p1 	 (-1 	 0.000126487 	 0.000646047);
p2 	 (51 	 0.000126487 	 0.000646047);
radius 9.45e-06;
fieldValues
(
volScalarFieldValue alpha.phase1 1
);
}
cylinderToCell
{
p1 	 (-1 	 0.000136781 	 0.000396794);
p2 	 (51 	 0.000136781 	 0.000396794);
radius 9.454e-06;
fieldValues
(
volScalarFieldValue alpha.phase1 1
);
}
cylinderToCell
{
p1 	 (-1 	 0.000178504 	 0.00044082);
p2 	 (51 	 0.000178504 	 0.00044082);
radius 9.454e-06;
fieldValues
(
volScalarFieldValue alpha.phase1 1
);
}
cylinderToCell
{
p1 	 (-1 	 0.00029053 	 0.000311349);
p2 	 (51 	 0.00029053 	 0.000311349);
radius 9.47e-06;
fieldValues
(
volScalarFieldValue alpha.phase1 1
);
}
cylinderToCell
{
p1 	 (-1 	 0.0002904 	 0.000242402);
p2 	 (51 	 0.0002904 	 0.000242402);
radius 9.6e-06;
fieldValues
(
volScalarFieldValue alpha.phase1 1
);
}
cylinderToCell
{
p1 	 (-1 	 9.02167e-05 	 8.68312e-05);
p2 	 (51 	 9.02167e-05 	 8.68312e-05);
radius 9.64e-06;
fieldValues
(
volScalarFieldValue alpha.phase1 1
);
}
cylinderToCell
{
p1 	 (-1 	 5.96902e-05 	 9.69016e-06);
p2 	 (51 	 5.96902e-05 	 9.69016e-06);
radius 9.69e-06;
fieldValues
(
volScalarFieldValue alpha.phase1 1
);
}
cylinderToCell
{
p1 	 (-1 	 0.00029031 	 0.000367217);
p2 	 (51 	 0.00029031 	 0.000367217);
radius 9.69e-06;
fieldValues
(
volScalarFieldValue alpha.phase1 1
);
}
cylinderToCell
{
p1 	 (-1 	 0.000108096 	 0.000465355);
p2 	 (51 	 0.000108096 	 0.000465355);
radius 9.74e-06;
fieldValues
(
volScalarFieldValue alpha.phase1 1
);
}
cylinderToCell
{
p1 	 (-1 	 0.00029026 	 9.12541e-05);
p2 	 (51 	 0.00029026 	 9.12541e-05);
radius 9.74e-06;
fieldValues
(
volScalarFieldValue alpha.phase1 1
);
}
cylinderToCell
{
p1 	 (-1 	 0.00017312 	 9.77017e-06);
p2 	 (51 	 0.00017312 	 9.77017e-06);
radius 9.77e-06;
fieldValues
(
volScalarFieldValue alpha.phase1 1
);
}
cylinderToCell
{
p1 	 (-1 	 0.000221266 	 0.000394428);
p2 	 (51 	 0.000221266 	 0.000394428);
radius 9.77e-06;
fieldValues
(
volScalarFieldValue alpha.phase1 1
);
}
cylinderToCell
{
p1 	 (-1 	 0.000137553 	 0.000117609);
p2 	 (51 	 0.000137553 	 0.000117609);
radius 9.79e-06;
fieldValues
(
volScalarFieldValue alpha.phase1 1
);
}
cylinderToCell
{
p1 	 (-1 	 0.000149093 	 6.77907e-05);
p2 	 (51 	 0.000149093 	 6.77907e-05);
radius 9.896e-06;
fieldValues
(
volScalarFieldValue alpha.phase1 1
);
}
cylinderToCell
{
p1 	 (-1 	 0.000247956 	 0.000510177);
p2 	 (51 	 0.000247956 	 0.000510177);
radius 9.896e-06;
fieldValues
(
volScalarFieldValue alpha.phase1 1
);
}
cylinderToCell
{
p1 	 (-1 	 0.000169721 	 0.000423483);
p2 	 (51 	 0.000169721 	 0.000423483);
radius 9.98e-06;
fieldValues
(
volScalarFieldValue alpha.phase1 1
);
}
cylinderToCell
{
p1 	 (-1 	 0.000224058 	 0.000183621);
p2 	 (51 	 0.000224058 	 0.000183621);
radius 9.98e-06;
fieldValues
(
volScalarFieldValue alpha.phase1 1
);
}
cylinderToCell
{
p1 	 (-1 	 8.05385e-05 	 0.000355244);
p2 	 (51 	 8.05385e-05 	 0.000355244);
radius 1.002e-05;
fieldValues
(
volScalarFieldValue alpha.phase1 1
);
}
cylinderToCell
{
p1 	 (-1 	 6.00202e-05 	 0.000499278);
p2 	 (51 	 6.00202e-05 	 0.000499278);
radius 1.002e-05;
fieldValues
(
volScalarFieldValue alpha.phase1 1
);
}
cylinderToCell
{
p1 	 (-1 	 6.0267e-05 	 0.000227044);
p2 	 (51 	 6.0267e-05 	 0.000227044);
radius 1.0032e-05;
fieldValues
(
volScalarFieldValue alpha.phase1 1
);
}
cylinderToCell
{
p1 	 (-1 	 0.000168213 	 0.000272457);
p2 	 (51 	 0.000168213 	 0.000272457);
radius 1.0032e-05;
fieldValues
(
volScalarFieldValue alpha.phase1 1
);
}
cylinderToCell
{
p1 	 (-1 	 0.000199946 	 0.0003398);
p2 	 (51 	 0.000199946 	 0.0003398);
radius 1.0134e-05;
fieldValues
(
volScalarFieldValue alpha.phase1 1
);
}
cylinderToCell
{
p1 	 (-1 	 7.5762e-05 	 0.000214096);
p2 	 (51 	 7.5762e-05 	 0.000214096);
radius 1.016e-05;
fieldValues
(
volScalarFieldValue alpha.phase1 1
);
}
cylinderToCell
{
p1 	 (-1 	 0.000118819 	 0.000448561);
p2 	 (51 	 0.000118819 	 0.000448561);
radius 1.016e-05;
fieldValues
(
volScalarFieldValue alpha.phase1 1
);
}
cylinderToCell
{
p1 	 (-1 	 0.000270646 	 0.000243315);
p2 	 (51 	 0.000270646 	 0.000243315);
radius 1.016e-05;
fieldValues
(
volScalarFieldValue alpha.phase1 1
);
}
cylinderToCell
{
p1 	 (-1 	 0.000118117 	 0.000390421);
p2 	 (51 	 0.000118117 	 0.000390421);
radius 1.025e-05;
fieldValues
(
volScalarFieldValue alpha.phase1 1
);
}
cylinderToCell
{
p1 	 (-1 	 0.000141858 	 0.000302586);
p2 	 (51 	 0.000141858 	 0.000302586);
radius 1.025e-05;
fieldValues
(
volScalarFieldValue alpha.phase1 1
);
}
cylinderToCell
{
p1 	 (-1 	 0.000242549 	 0.00017457);
p2 	 (51 	 0.000242549 	 0.00017457);
radius 1.036e-05;
fieldValues
(
volScalarFieldValue alpha.phase1 1
);
}
cylinderToCell
{
p1 	 (-1 	 0.000241199 	 0.000562272);
p2 	 (51 	 0.000241199 	 0.000562272);
radius 1.036e-05;
fieldValues
(
volScalarFieldValue alpha.phase1 1
);
}
cylinderToCell
{
p1 	 (-1 	 0.000203978 	 0.000179637);
p2 	 (51 	 0.000203978 	 0.000179637);
radius 1.048e-05;
fieldValues
(
volScalarFieldValue alpha.phase1 1
);
}
cylinderToCell
{
p1 	 (-1 	 0.00028952 	 0.000490414);
p2 	 (51 	 0.00028952 	 0.000490414);
radius 1.048e-05;
fieldValues
(
volScalarFieldValue alpha.phase1 1
);
}
cylinderToCell
{
p1 	 (-1 	 6.05252e-05 	 0.000113767);
p2 	 (51 	 6.05252e-05 	 0.000113767);
radius 1.0525e-05;
fieldValues
(
volScalarFieldValue alpha.phase1 1
);
}
cylinderToCell
{
p1 	 (-1 	 0.000207225 	 0.000359135);
p2 	 (51 	 0.000207225 	 0.000359135);
radius 1.0525e-05;
fieldValues
(
volScalarFieldValue alpha.phase1 1
);
}
cylinderToCell
{
p1 	 (-1 	 0.000289441 	 0.000608251);
p2 	 (51 	 0.000289441 	 0.000608251);
radius 1.0559e-05;
fieldValues
(
volScalarFieldValue alpha.phase1 1
);
}
cylinderToCell
{
p1 	 (-1 	 6.06202e-05 	 0.000247693);
p2 	 (51 	 6.06202e-05 	 0.000247693);
radius 1.062e-05;
fieldValues
(
volScalarFieldValue alpha.phase1 1
);
}
cylinderToCell
{
p1 	 (-1 	 0.00028938 	 0.000387506);
p2 	 (51 	 0.00028938 	 0.000387506);
radius 1.062e-05;
fieldValues
(
volScalarFieldValue alpha.phase1 1
);
}
cylinderToCell
{
p1 	 (-1 	 6.07002e-05 	 0.000361226);
p2 	 (51 	 6.07002e-05 	 0.000361226);
radius 1.07e-05;
fieldValues
(
volScalarFieldValue alpha.phase1 1
);
}
cylinderToCell
{
p1 	 (-1 	 0.000248299 	 0.000329513);
p2 	 (51 	 0.000248299 	 0.000329513);
radius 1.07e-05;
fieldValues
(
volScalarFieldValue alpha.phase1 1
);
}
cylinderToCell
{
p1 	 (-1 	 0.000152642 	 1.07102e-05);
p2 	 (51 	 0.000152642 	 1.07102e-05);
radius 1.071e-05;
fieldValues
(
volScalarFieldValue alpha.phase1 1
);
}
cylinderToCell
{
p1 	 (-1 	 0.000248707 	 0.00035099);
p2 	 (51 	 0.000248707 	 0.00035099);
radius 1.078e-05;
fieldValues
(
volScalarFieldValue alpha.phase1 1
);
}
cylinderToCell
{
p1 	 (-1 	 0.000126183 	 0.000683726);
p2 	 (51 	 0.000126183 	 0.000683726);
radius 1.078e-05;
fieldValues
(
volScalarFieldValue alpha.phase1 1
);
}
cylinderToCell
{
p1 	 (-1 	 0.000225538 	 4.78086e-05);
p2 	 (51 	 0.000225538 	 4.78086e-05);
radius 1.079e-05;
fieldValues
(
volScalarFieldValue alpha.phase1 1
);
}
cylinderToCell
{
p1 	 (-1 	 0.000198166 	 0.00013228);
p2 	 (51 	 0.000198166 	 0.00013228);
radius 1.0865e-05;
fieldValues
(
volScalarFieldValue alpha.phase1 1
);
}
cylinderToCell
{
p1 	 (-1 	 0.000242545 	 0.000394749);
p2 	 (51 	 0.000242545 	 0.000394749);
radius 1.09e-05;
fieldValues
(
volScalarFieldValue alpha.phase1 1
);
}
cylinderToCell
{
p1 	 (-1 	 0.000256514 	 0.000640954);
p2 	 (51 	 0.000256514 	 0.000640954);
radius 1.09e-05;
fieldValues
(
volScalarFieldValue alpha.phase1 1
);
}
cylinderToCell
{
p1 	 (-1 	 0.000116566 	 0.000664048);
p2 	 (51 	 0.000116566 	 0.000664048);
radius 1.1103e-05;
fieldValues
(
volScalarFieldValue alpha.phase1 1
);
}
cylinderToCell
{
p1 	 (-1 	 0.000253621 	 0.000230515);
p2 	 (51 	 0.000253621 	 0.000230515);
radius 1.1103e-05;
fieldValues
(
volScalarFieldValue alpha.phase1 1
);
}
cylinderToCell
{
p1 	 (-1 	 0.000220932 	 0.000683328);
p2 	 (51 	 0.000220932 	 0.000683328);
radius 1.12e-05;
fieldValues
(
volScalarFieldValue alpha.phase1 1
);
}
cylinderToCell
{
p1 	 (-1 	 0.000287532 	 0.000409248);
p2 	 (51 	 0.000287532 	 0.000409248);
radius 1.12e-05;
fieldValues
(
volScalarFieldValue alpha.phase1 1
);
}
cylinderToCell
{
p1 	 (-1 	 6.12402e-05 	 0.000452159);
p2 	 (51 	 6.12402e-05 	 0.000452159);
radius 1.124e-05;
fieldValues
(
volScalarFieldValue alpha.phase1 1
);
}
cylinderToCell
{
p1 	 (-1 	 0.000131221 	 0.0002246);
p2 	 (51 	 0.000131221 	 0.0002246);
radius 1.124e-05;
fieldValues
(
volScalarFieldValue alpha.phase1 1
);
}
cylinderToCell
{
p1 	 (-1 	 0.000185899 	 0.000191748);
p2 	 (51 	 0.000185899 	 0.000191748);
radius 1.128e-05;
fieldValues
(
volScalarFieldValue alpha.phase1 1
);
}
cylinderToCell
{
p1 	 (-1 	 9.4778e-05 	 0.000164442);
p2 	 (51 	 9.4778e-05 	 0.000164442);
radius 1.137e-05;
fieldValues
(
volScalarFieldValue alpha.phase1 1
);
}
cylinderToCell
{
p1 	 (-1 	 8.82893e-05 	 0.000473197);
p2 	 (51 	 8.82893e-05 	 0.000473197);
radius 1.1562e-05;
fieldValues
(
volScalarFieldValue alpha.phase1 1
);
}
cylinderToCell
{
p1 	 (-1 	 0.000278494 	 0.000430182);
p2 	 (51 	 0.000278494 	 0.000430182);
radius 1.1562e-05;
fieldValues
(
volScalarFieldValue alpha.phase1 1
);
}
cylinderToCell
{
p1 	 (-1 	 0.000117204 	 0.000169513);
p2 	 (51 	 0.000117204 	 0.000169513);
radius 1.162e-05;
fieldValues
(
volScalarFieldValue alpha.phase1 1
);
}
cylinderToCell
{
p1 	 (-1 	 0.000101324 	 0.000186481);
p2 	 (51 	 0.000101324 	 0.000186481);
radius 1.162e-05;
fieldValues
(
volScalarFieldValue alpha.phase1 1
);
}
cylinderToCell
{
p1 	 (-1 	 0.000103728 	 0.000682858);
p2 	 (51 	 0.000103728 	 0.000682858);
radius 1.167e-05;
fieldValues
(
volScalarFieldValue alpha.phase1 1
);
}
cylinderToCell
{
p1 	 (-1 	 0.000208501 	 0.000319628);
p2 	 (51 	 0.000208501 	 0.000319628);
radius 1.167e-05;
fieldValues
(
volScalarFieldValue alpha.phase1 1
);
}
cylinderToCell
{
p1 	 (-1 	 0.000138309 	 0.000560919);
p2 	 (51 	 0.000138309 	 0.000560919);
radius 1.178e-05;
fieldValues
(
volScalarFieldValue alpha.phase1 1
);
}
cylinderToCell
{
p1 	 (-1 	 0.00024661 	 0.000619602);
p2 	 (51 	 0.00024661 	 0.000619602);
radius 1.178e-05;
fieldValues
(
volScalarFieldValue alpha.phase1 1
);
}
cylinderToCell
{
p1 	 (-1 	 0.0002882 	 0.000468173);
p2 	 (51 	 0.0002882 	 0.000468173);
radius 1.18e-05;
fieldValues
(
volScalarFieldValue alpha.phase1 1
);
}
cylinderToCell
{
p1 	 (-1 	 0.000185847 	 2.71858e-05);
p2 	 (51 	 0.000185847 	 2.71858e-05);
radius 1.18e-05;
fieldValues
(
volScalarFieldValue alpha.phase1 1
);
}
cylinderToCell
{
p1 	 (-1 	 0.000138935 	 0.000178301);
p2 	 (51 	 0.000138935 	 0.000178301);
radius 1.182e-05;
fieldValues
(
volScalarFieldValue alpha.phase1 1
);
}
cylinderToCell
{
p1 	 (-1 	 0.000231475 	 0.000314453);
p2 	 (51 	 0.000231475 	 0.000314453);
radius 1.188e-05;
fieldValues
(
volScalarFieldValue alpha.phase1 1
);
}
cylinderToCell
{
p1 	 (-1 	 8.16214e-05 	 0.000495671);
p2 	 (51 	 8.16214e-05 	 0.000495671);
radius 1.188e-05;
fieldValues
(
volScalarFieldValue alpha.phase1 1
);
}
cylinderToCell
{
p1 	 (-1 	 0.000202974 	 0.000478407);
p2 	 (51 	 0.000202974 	 0.000478407);
radius 1.191e-05;
fieldValues
(
volScalarFieldValue alpha.phase1 1
);
}
cylinderToCell
{
p1 	 (-1 	 7.7021e-05 	 0.000376931);
p2 	 (51 	 7.7021e-05 	 0.000376931);
radius 1.195e-05;
fieldValues
(
volScalarFieldValue alpha.phase1 1
);
}
cylinderToCell
{
p1 	 (-1 	 0.000150218 	 0.000413455);
p2 	 (51 	 0.000150218 	 0.000413455);
radius 1.195e-05;
fieldValues
(
volScalarFieldValue alpha.phase1 1
);
}
cylinderToCell
{
p1 	 (-1 	 0.000181547 	 0.000394086);
p2 	 (51 	 0.000181547 	 0.000394086);
radius 1.203e-05;
fieldValues
(
volScalarFieldValue alpha.phase1 1
);
}
cylinderToCell
{
p1 	 (-1 	 0.00026829 	 0.000451667);
p2 	 (51 	 0.00026829 	 0.000451667);
radius 1.203e-05;
fieldValues
(
volScalarFieldValue alpha.phase1 1
);
}
cylinderToCell
{
p1 	 (-1 	 0.000262689 	 1.20382e-05);
p2 	 (51 	 0.000262689 	 1.20382e-05);
radius 1.2038e-05;
fieldValues
(
volScalarFieldValue alpha.phase1 1
);
}
cylinderToCell
{
p1 	 (-1 	 0.000137168 	 0.000202094);
p2 	 (51 	 0.000137168 	 0.000202094);
radius 1.2038e-05;
fieldValues
(
volScalarFieldValue alpha.phase1 1
);
}
cylinderToCell
{
p1 	 (-1 	 0.000157583 	 0.00039057);
p2 	 (51 	 0.000157583 	 0.00039057);
radius 1.209e-05;
fieldValues
(
volScalarFieldValue alpha.phase1 1
);
}
cylinderToCell
{
p1 	 (-1 	 0.000129731 	 1.21742e-05);
p2 	 (51 	 0.000129731 	 1.21742e-05);