/*--------------------------------*- C++ -*----------------------------------*\
  =========                 |
  \\      /  F ield         | OpenFOAM: The Open Source CFD Toolbox
   \\    /   O peration     | Website:  https://openfoam.org
    \\  /    A nd           | Version:  6
     \\/     M anipulation  |
\*---------------------------------------------------------------------------*/
FoamFile
{
    version     2.0;
    format      binary;
    class       polyBoundaryMesh;
    location    "constant/polyMesh";
    object      boundary;
}
// * * * * * * * * * * * * * * * * * * * * * * * * * * * * * * * * * * * * * //

7
(
    left
    {
        type            wall;
        inGroups        1(wall);
        nFaces          50;
        startFace       4272;
    }
    right
    {
        type            wall;
        inGroups        1(wall);
        nFaces          0;
        startFace       4322;
    }
    bottom
    {
        type            wall;
        inGroups        1(wall);
        nFaces          44;
        startFace       4322;
    }
    top
    {
        type            patch;
        nFaces          0;
        startFace       4366;
    }
    frontAndBack
    {
        type            empty;
        inGroups        1(empty);
        nFaces          4366;
        startFace       4366;
    }
    procBoundary2to1
    {
        type            processor;
        inGroups        1(processor);
        nFaces          51;
        startFace       8732;
        matchTolerance  0.0001;
        transform       unknown;
        myProcNo        2;
        neighbProcNo    1;
    }
    procBoundary2to5
    {
        type            processor;
        inGroups        1(processor);
        nFaces          43;
        startFace       8783;
        matchTolerance  0.0001;
        transform       unknown;
        myProcNo        2;
        neighbProcNo    5;
    }
)

// ************************************************************************* //
