/*--------------------------------*- C++ -*----------------------------------*\
  =========                 |
  \\      /  F ield         | OpenFOAM: The Open Source CFD Toolbox
   \\    /   O peration     | Website:  https://openfoam.org
    \\  /    A nd           | Version:  6
     \\/     M anipulation  |
\*---------------------------------------------------------------------------*/
FoamFile
{
    version     2.0;
    format      ascii;
    class       polyBoundaryMesh;
    location    "constant/polyMesh";
    object      boundary;
}
// * * * * * * * * * * * * * * * * * * * * * * * * * * * * * * * * * * * * * //

5
(
    lowerWall
    {
        type            wall;
        inGroups        1(wall);
        nFaces          7200;
        startFace       1278000;
    }
    atmosphere
    {
        type            patch;
        nFaces          7200;
        startFace       1285200;
    }
    rightWall
    {
        type            patch;
        nFaces          7200;
        startFace       1292400;
    }
    leftWall
    {
        type            patch;
        nFaces          7200;
        startFace       1299600;
    }
    frontAndBack
    {
        type            patch;
        nFaces          7200;
        startFace       1306800;
    }
)

// ************************************************************************* //
