/*--------------------------------*- C++ -*----------------------------------*\
  =========                 |
  \\      /  F ield         | OpenFOAM: The Open Source CFD Toolbox
   \\    /   O peration     | Website:  https://openfoam.org
    \\  /    A nd           | Version:  6
     \\/     M anipulation  |
\*---------------------------------------------------------------------------*/
FoamFile
{
    version     2.0;
    format      ascii;
    class       dictionary;
    location    "system";
    object      fvSolution;
}
// * * * * * * * * * * * * * * * * * * * * * * * * * * * * * * * * * * * * * //

solvers
{
    "alpha.phase1.*"
    {
        nAlphaCorr      2;
        nAlphaSubCycles 3;
        cAlpha          1;
	//scAlpha		0.5;
	//icAlpha		1;

        MULESCorr       yes;
        nLimiterIter    5;

        solver          smoothSolver;
        smoother        symGaussSeidel;
        tolerance       1e-12;
        relTol          0;
    }

    "pcorr.*"
    {
        solver          PCG;
        preconditioner  DIC;
        tolerance       1e-12;
        relTol          0;
    }

    p_rgh
    {
        solver          PCG;
        preconditioner  DIC;
        tolerance       1e-12;
        relTol          0.0;
    }

    p_rghFinal
    {
        $p_rgh;
        relTol          0;
    }

    U
    {
        solver          smoothSolver;
        smoother        symGaussSeidel;
        tolerance       1e-12;
        relTol          0;
    }

    Temperature
    {
        solver          smoothSolver;
        smoother        symGaussSeidel;
        tolerance       1e-12;
        relTol          0;
    }

    TemperatureFinal
    {
        $Temperature;
    }


}



PIMPLE
{
    momentumPredictor   no;
    nOuterCorrectors    1;
    nCorrectors         5;
    nNonOrthogonalCorrectors 0;
    pRefCell        0.0;
    pRefValue       0.0;
}

MELTING
{
    minTempCorrector 1;
    maxTempCorrector 100;
    epsilonTolerance 1e-8;
    epsilonRelaxation 0.95;
//	//	Heatsource characteristics
HS_a 0.0002;
HS_bg 0.0;
HS_velocity 0.4;
HS_lg 0.0;//0.0025;
HS_Q 250.0;

HS_deposition_cutoff 0.25;

Oscillation_Amplitude   1.0e-4;//0.015;
Oscillation_Frequency   200.0;

Y_R 0.2;//0.05; //Y_R->0 HS -> wider
focY	0.0165; //-0.08;//
foc_shift_vel 0.0;
Q_ramp_rate 2500.0;
tshift 2.5;

}

relaxationFactors
{
    equations
    {
        ".*" 0.99;
    }
}


// ************************************************************************* //
