/*--------------------------------*- C++ -*----------------------------------*\
  =========                 |
  \\      /  F ield         | OpenFOAM: The Open Source CFD Toolbox
   \\    /   O peration     | Website:  https://openfoam.org
    \\  /    A nd           | Version:  6
     \\/     M anipulation  |
\*---------------------------------------------------------------------------*/
FoamFile
{
    version     2.0;
    format      ascii;
    class       dictionary;
    location    "constant";
    object      transportProperties;
}
// * * * * * * * * * * * * * * * * * * * * * * * * * * * * * * * * * * * * * //

phases (phase1 phase2);

phase1
{
    transportModel  Newtonian;
    nu              2.0e-06;
    rho             4500;
    cp  1100;
    cpsolid 520.0;
    kappa  30.0;
	kappasolid  20.0; 
	Tsolidus 1878;
	Tliquidus 1933;
    LatentHeat 360000;
    beta    8.0e-6;
}

phase2
{
    transportModel  Newtonian;
    nu              1.48e-05;
    rho             0.1;
    cp  500;
cpsolid 500;
    kappa  0.016;
kappasolid 0.016;
    Tsolidus    1.0;
    Tliquidus   10.0;
    LatentHeat  1;
    beta    1.0e-5;
}

sigma            1.5;//1.5;
dsigmadT	-4.5e-4;

p0		100000.0;
Tvap 3560.0;
Mm 0.446;
LatentHeatVap 4.7e6;

// ************************************************************************* //
