/*--------------------------------*- C++ -*----------------------------------*\
  =========                 |
  \\      /  F ield         | OpenFOAM: The Open Source CFD Toolbox
   \\    /   O peration     | Website:  https://openfoam.org
    \\  /    A nd           | Version:  6
     \\/     M anipulation  |
\*---------------------------------------------------------------------------*/
FoamFile
{
    version     2.0;
    format      binary;
    class       polyBoundaryMesh;
    location    "constant/polyMesh";
    object      boundary;
}
// * * * * * * * * * * * * * * * * * * * * * * * * * * * * * * * * * * * * * //

8
(
    left
    {
        type            wall;
        inGroups        1(wall);
        nFaces          0;
        startFace       4238;
    }
    right
    {
        type            wall;
        inGroups        1(wall);
        nFaces          0;
        startFace       4238;
    }
    bottom
    {
        type            wall;
        inGroups        1(wall);
        nFaces          0;
        startFace       4238;
    }
    top
    {
        type            patch;
        nFaces          43;
        startFace       4238;
    }
    frontAndBack
    {
        type            empty;
        inGroups        1(empty);
        nFaces          4332;
        startFace       4281;
    }
    procBoundary4to1
    {
        type            processor;
        inGroups        1(processor);
        nFaces          44;
        startFace       8613;
        matchTolerance  0.0001;
        transform       unknown;
        myProcNo        4;
        neighbProcNo    1;
    }
    procBoundary4to3
    {
        type            processor;
        inGroups        1(processor);
        nFaces          51;
        startFace       8657;
        matchTolerance  0.0001;
        transform       unknown;
        myProcNo        4;
        neighbProcNo    3;
    }
    procBoundary4to5
    {
        type            processor;
        inGroups        1(processor);
        nFaces          50;
        startFace       8708;
        matchTolerance  0.0001;
        transform       unknown;
        myProcNo        4;
        neighbProcNo    5;
    }
)

// ************************************************************************* //
