/*--------------------------------*- C++ -*----------------------------------*\
  =========                 |
  \\      /  F ield         | OpenFOAM: The Open Source CFD Toolbox
   \\    /   O peration     | Website:  https://openfoam.org
    \\  /    A nd           | Version:  6
     \\/     M anipulation  |
\*---------------------------------------------------------------------------*/
FoamFile
{
    version     2.0;
    format      binary;
    class       polyBoundaryMesh;
    location    "constant/polyMesh";
    object      boundary;
}
// * * * * * * * * * * * * * * * * * * * * * * * * * * * * * * * * * * * * * //

7
(
    left
    {
        type            wall;
        inGroups        1(wall);
        nFaces          50;
        startFace       4207;
    }
    right
    {
        type            wall;
        inGroups        1(wall);
        nFaces          0;
        startFace       4257;
    }
    bottom
    {
        type            wall;
        inGroups        1(wall);
        nFaces          0;
        startFace       4257;
    }
    top
    {
        type            patch;
        nFaces          43;
        startFace       4257;
    }
    frontAndBack
    {
        type            empty;
        inGroups        1(empty);
        nFaces          4300;
        startFace       4300;
    }
    procBoundary5to2
    {
        type            processor;
        inGroups        1(processor);
        nFaces          43;
        startFace       8600;
        matchTolerance  0.0001;
        transform       unknown;
        myProcNo        5;
        neighbProcNo    2;
    }
    procBoundary5to4
    {
        type            processor;
        inGroups        1(processor);
        nFaces          50;
        startFace       8643;
        matchTolerance  0.0001;
        transform       unknown;
        myProcNo        5;
        neighbProcNo    4;
    }
)

// ************************************************************************* //
